67
Energy = -2345.867478380
N     8.0986634  -10.4199729   27.0179350 
N     4.2695059   -6.7110241   23.7639852 
N     7.9870872   -8.8289269   25.2413899 
N     4.3960139   -7.0407766   21.4629661 
N     6.0614377   -9.8714192   25.8976830 
C     7.3780601   -9.7001922   26.0479786 
C     3.9727261   -5.8405316   24.8918050 
H     3.2813923   -5.0313130   24.5952539 
C     3.8243864   -6.4556267   22.5722075 
C     5.3966620  -11.0991723   26.2781162 
H     6.0713087  -11.7501067   26.8664259 
C     2.9188725   -4.5601476   21.2607946 
H     2.1744329   -4.6828131   20.4475927 
H     2.7659350   -3.5547707   21.7033095 
H     3.9266088   -4.5915834   20.8207448 
C     9.2405769   -8.1988053   25.5860882 
H     9.6835931   -8.6658881   26.4860549 
C     3.6240700   -7.4829101   20.2878750 
H     3.0583454   -6.6051463   19.9376951 
C    10.2439278   -8.3287198   24.4406425 
H     9.8433215   -7.8561724   23.5247634 
H    11.2045556   -7.8408582   24.6863947 
H    10.4452982   -9.3876562   24.2035853 
C     1.5318410   -5.6265808   22.9662053 
H     1.3287394   -4.7054493   23.5490318 
H     0.7032882   -5.7537744   22.2402103 
H     1.5125205   -6.4851082   23.6531218 
C     4.1623564  -10.8047216   27.1293304 
H     3.4515014  -10.1729233   26.5656959 
H     3.6385624  -11.7334384   27.4196158 
H     4.4333279  -10.2592129   28.0498356 
C     9.3294515  -11.0887807   26.7079255 
H     9.5591194  -10.9712605   25.6384965 
H    10.1906866  -10.7017668   27.2930529 
H     9.2470671  -12.1760425   26.9210395 
C     2.6297458   -8.5916053   20.6293417 
H     1.9428345   -8.2752716   21.4342231 
H     2.0190225   -8.8368859   19.7420298 
H     3.1744449   -9.4868261   20.9647993 
C     9.0179516   -6.7225685   25.9296795 
H     8.3145128   -6.6207361   26.7747175 
H     9.9640291   -6.2228850   26.2090108 
H     8.5929042   -6.1803860   25.0637960 
C     3.3327074   -6.6419856   26.0234047 
H     4.0081667   -7.4511555   26.3589914 
H     3.1174296   -5.9944481   26.8911941 
H     2.3869469   -7.1107915   25.7013482 
C     7.6265427  -10.5606967   28.3648299 
H     7.4098383  -11.6148463   28.6403147 
H     8.3829195  -10.1811147   29.0847034 
H     6.7057651   -9.9737009   28.4988220 
C     5.2661413   -5.1746039   25.3630054 
H     5.7313601   -4.5955090   24.5468443 
H     5.0711127   -4.4881005   26.2057019 
H     5.9992731   -5.9265470   25.7104612 
C     5.0036537  -11.8934974   25.0282876 
H     5.8953547  -12.1431979   24.4264419 
H     4.4922591  -12.8384946   25.2893691 
H     4.3184498  -11.3049890   24.3886425 
C     4.5840252   -7.8931343   19.1805739 
H     5.1582186   -8.7801919   19.4908308 
H     4.0068323   -8.1322714   18.2710447 
H     5.2911412   -7.0810539   18.9431361 
N     2.7921939   -5.5761292   22.2727950 
Yb    5.9896838   -8.4750805   23.9535243 
O     5.3681526   -9.1064468   21.9187488 
O     5.5777631   -7.6817234   21.6438829 
