99
Energy = -2864.133747543
N     7.7205404  -10.7188165   26.2787929 
N     4.1850175   -6.3138477   24.1282190 
N     8.1045669   -8.5637381   25.3143719 
N     4.8064338   -6.7384094   21.9188970 
N     6.0467555   -9.0060635   26.1237740 
N     6.7282982   -5.5267746   26.9154136 
N     8.2124264   -3.6456993   26.8815720 
N     7.7559289   -5.0070885   24.9697699 
C     7.2966447   -9.4338084   25.9053832 
C     3.2545460   -5.5347935   24.9545067 
H     2.3295617   -5.3399621   24.3841403 
C     8.2475194   -4.0311609   24.0122513 
H     8.8529926   -3.2624880   24.5241134 
C     3.8531396   -6.5381734   22.8868523 
C     4.9735471   -9.9484540   26.3681352 
H     5.3874776  -10.9696088   26.4562305 
C     7.5660146   -4.7212038   26.2581792 
C     7.3931378   -7.0061681   28.7647333 
H     8.4242501   -7.1047839   28.3868855 
H     7.4168238   -7.1159599   29.8647711 
H     6.7956768   -7.8299381   28.3359752 
C     6.7969458   -5.6565644   28.3618721 
H     7.4668390   -4.8806227   28.7747476 
C     2.1759665   -5.8361748   21.2079338 
H     1.7698490   -6.5094055   20.4263299 
H     1.3911397   -5.0906263   21.4473259 
H     3.0446311   -5.3015078   20.7964288 
C     9.5363910   -8.7305254   25.1966502 
H     9.8438336   -9.6768136   25.6802441 
C     4.6824334   -7.7169208   20.8232845 
H     3.7225859   -7.5068983   20.3254092 
C     9.9541155   -8.7777571   23.7258647 
H     9.6558847   -7.8468418   23.2149564 
H    11.0478899   -8.9035230   23.6282013 
H     9.4602671   -9.6086481   23.1941891 
C     1.4936240   -7.2415184   23.0825751 
H     0.7267588   -6.5487778   23.4841076 
H     0.9866329   -7.9377475   22.3854423 
H     1.9019746   -7.8317111   23.9149407 
C     4.2345082   -9.6375179   27.6697371 
H     3.7869689   -8.6296742   27.6342191 
H     3.4240770  -10.3661950   27.8522052 
H     4.9194034   -9.6654492   28.5345521 
C     8.3401341  -11.6180164   25.3474189 
H     8.3958886  -11.1522604   24.3527429 
H     9.3671262  -11.9096426   25.6522163 
H     7.7452254  -12.5517939   25.2511398 
C     4.6508102   -9.1588229   21.3241113 
H     3.8317488   -9.3066968   22.0493412 
H     4.4802452   -9.8475504   20.4770588 
H     5.6022296   -9.4104859   21.8170914 
C    10.2725960   -7.6024789   25.9204554 
H    10.0445764   -7.6133448   26.9998870 
H    11.3666067   -7.7028322   25.7994641 
H     9.9600497   -6.6242133   25.5147360 
C     2.8764044   -6.2649492   26.2357629 
H     3.7750702   -6.4828093   26.8357873 
H     2.2081614   -5.6380911   26.8516014 
H     2.3591977   -7.2176911   26.0351041 
C     9.6293509   -3.4409125   26.7703939 
H     9.8865594   -2.4685643   26.2999123 
H    10.1031902   -3.4585447   27.7749784 
H    10.0817197   -4.2468374   26.1730727 
C     7.5338723  -11.2140774   27.6127340 
H     6.8784849  -12.1102306   27.6527726 
H     8.5090119  -11.4966172   28.0632703 
H     7.0867271  -10.4324589   28.2446084 
C     5.4258816   -5.4756463   29.0108041 
H     4.7495398   -6.3013959   28.7294898 
H     5.5096167   -5.4745746   30.1122906 
H     4.9511323   -4.5287138   28.6997094 
C     9.1423943   -4.7140064   22.9817576 
H     8.5867305   -5.5084082   22.4544772 
H     9.5110255   -3.9863038   22.2368082 
H    10.0169377   -5.1803213   23.4682105 
C     7.0952930   -3.2873881   23.3317487 
H     6.4789140   -2.7596473   24.0806690 
H     7.4803527   -2.5366039   22.6169029 
H     6.4509325   -3.9949317   22.7822099 
C     3.8752254   -4.1741234   25.2683395 
H     4.1292657   -3.6365724   24.3397638 
H     3.1649295   -3.5550066   25.8457786 
H     4.7963066   -4.2958316   25.8661284 
C     7.5010984   -2.7061625   27.7009371 
H     7.8500049   -2.7026103   28.7552058 
H     7.6257223   -1.6751405   27.3074079 
H     6.4263143   -2.9418694   27.6953314 
C     4.0065596   -9.9833690   25.1838329 
H     4.5334743  -10.2946315   24.2659260 
H     3.1741781  -10.6886920   25.3632568 
H     3.5825061   -8.9805134   25.0009306 
C     5.7943293   -7.4802617   19.8126959 
H     6.7758076   -7.7038020   20.2595219 
H     5.6399444   -8.1399704   18.9418887 
H     5.8011202   -6.4344083   19.4628151 
N     2.5573882   -6.5550635   22.3968877 
Yb    6.4932780   -6.9529255   24.9734098 
O     6.7406517   -7.4679976   22.8994095 
O     6.0604262   -6.3724807   22.2380151 
