97
Energy = -2714.085091646
N     7.5522721  -10.8068702   25.9525276 
N     3.9201947   -6.3671456   24.6801359 
N     7.7807349   -8.6820489   24.8769802 
N     5.1708445   -7.0807743   22.9346020 
N     5.9303120   -9.0534181   26.1189434 
N     6.7380841   -5.6051046   26.8852650 
N     8.1433727   -3.6797953   26.6705468 
N     7.5189883   -5.0781555   24.8319699 
C     7.0914736   -9.5196941   25.6495419 
C     2.9410993   -5.4378614   25.2181066 
H     2.2071579   -5.1747528   24.4356771 
C     7.8754821   -4.0944643   23.8256998 
H     8.2332176   -3.1707016   24.3148016 
C     3.9948390   -6.6285565   23.3725660 
C     4.8685486   -9.9415774   26.5594561 
H     5.2933184  -10.8634984   26.9961727 
C     7.4700004   -4.7816847   26.1329188 
C     7.5809535   -7.0465126   28.6871168 
H     8.5893718   -7.1113413   28.2459763 
H     7.6793829   -7.1522626   29.7831795 
H     6.9851534   -7.8922012   28.2993677 
C     6.9189824   -5.7165389   28.3207652 
H     7.5959743   -4.9204902   28.6786220 
C     3.0404035   -5.7448038   21.2629315 
H     2.7910528   -6.3814191   20.3885989 
H     2.3632104   -4.8651000   21.2378117 
H     4.0717453   -5.3804560   21.1440877 
C     9.2097780   -8.8239704   24.6673417 
H     9.5542299   -9.7947241   25.0687075 
C     5.2948776   -7.8387822   21.7015634 
H     4.3457396   -7.7957634   21.1372651 
C     9.5533644   -8.7822160   23.1801524 
H     9.2475345   -7.8171162   22.7411389 
H    10.6402895   -8.8990981   23.0209851 
H     9.0379062   -9.5830155   22.6226011 
C     1.5929773   -6.9153216   22.8371378 
H     0.8501203   -6.0956403   22.9338470 
H     1.2266990   -7.6051384   22.0479256 
H     1.6229133   -7.4705287   23.7865504 
C     4.0423161   -9.2634057   27.6479181 
H     3.5673727   -8.3485013   27.2547442 
H     3.2445053   -9.9335456   28.0141165 
H     4.6796954   -8.9804589   28.5050937 
C     8.0328271  -11.6980323   24.9342449 
H     7.9194236  -11.2322740   23.9437044 
H     9.1008219  -11.9713669   25.0689095 
H     7.4459131  -12.6401206   24.9348965 
C     5.5572096   -9.3173248   21.9943188 
H     4.7143858   -9.7560741   22.5536577 
H     5.6836298   -9.8909095   21.0576998 
H     6.4693684   -9.4326988   22.6064142 
C     9.9759710   -7.7385979   25.4264917 
H     9.8138715   -7.8372507   26.5133118 
H    11.0628088   -7.8089498   25.2355365 
H     9.6250255   -6.7379280   25.1185874 
C     2.1754265   -6.0502226   26.3881543 
H     2.8578474   -6.2580669   27.2299435 
H     1.3905235   -5.3624447   26.7507668 
H     1.6958570   -7.0018363   26.1015770 
C     9.5235085   -3.4144086   26.3769843 
H     9.6749343   -2.4430980   25.8605521 
H    10.1195013   -3.3890440   27.3135521 
H     9.9332116   -4.2120503   25.7396508 
C     7.6157350  -11.2909313   27.3031191 
H     6.9774048  -12.1836864   27.4704923 
H     8.6580074  -11.5740004   27.5629414 
H     7.3000342  -10.5013320   28.0026194 
C     5.5829525   -5.5651582   29.0442120 
H     4.8764640   -6.3442044   28.7077071 
H     5.7079337   -5.6623820   30.1373963 
H     5.1214853   -4.5846900   28.8353209 
C     8.9954642   -4.6127463   22.9262300 
H     8.6737155   -5.5304110   22.4036832 
H     9.2701459   -3.8643112   22.1623511 
H     9.9015063   -4.8573246   23.5065760 
C     6.6574848   -3.7015933   22.9863273 
H     5.8906324   -3.2175217   23.6146672 
H     6.9406518   -2.9937379   22.1861147 
H     6.2044037   -4.5959740   22.5233924 
C     3.6081565   -4.1293875   25.6474124 
H     4.0693617   -3.6252344   24.7814950 
H     2.8716011   -3.4368300   26.0950608 
H     4.4015130   -4.3288594   26.3888478 
C     7.4939746   -2.7503112   27.5517668 
H     7.9588482   -2.7152166   28.5595852 
H     7.5374991   -1.7236407   27.1307584 
H     6.4346734   -3.0218939   27.6679163 
C     3.9842685  -10.3803073   25.3891264 
H     4.5836971  -10.9203602   24.6347224 
H     3.1755798  -11.0535559   25.7300949 
H     3.5269542   -9.4993275   24.9008495 
C     6.3968556   -7.2624819   20.8155138 
H     7.3661889   -7.2928816   21.3430752 
H     6.4990749   -7.8400050   19.8792859 
H     6.1925827   -6.2110514   20.5483218 
N     2.9081870   -6.4398192   22.5126182 
Yb    6.1628650   -6.9784881   25.0630533 
