100
Energy = -2106.162358008
Ce    6.4896634   -6.7645767   24.9772438 
N     7.5614129  -10.8361309   26.2122512 
N     3.9981583   -6.3567948   24.0193152 
N     7.9719509   -8.7427822   25.1347048 
N     4.5555389   -7.1596684   21.9309767 
N     5.9920916   -9.0267495   26.1903952 
N     6.7751471   -5.4081940   27.1337399 
N     8.2388008   -3.5263688   27.3401609 
N     7.9323599   -4.7395474   25.3050509 
C     7.1744608   -9.5338600   25.8451667 
C     3.1453021   -5.4105149   24.7340582 
H     2.1867366   -5.2799985   24.1990049 
C     8.4811218   -3.6906664   24.4694853 
H     8.7873728   -2.8270758   25.0891584 
C     3.6216162   -6.8017834   22.8404962 
C     4.8820017   -9.8814701   26.5535478 
H     5.2272464  -10.9209348   26.7075646 
C     7.6495386   -4.5584724   26.5925026 
C     7.4426939   -7.0357667   28.8446848 
H     8.4922067   -7.0401551   28.5023861 
H     7.4351685   -7.2640737   29.9268364 
H     6.9058681   -7.8387863   28.3078506 
C     6.7912110   -5.6801645   28.5606024 
H     7.4027077   -4.9227315   29.0846414 
C     1.8643365   -6.5275473   21.1194831 
H     1.4772992   -7.3875376   20.5356625 
H     1.0513416   -5.7762273   21.1845404 
H     2.7026656   -6.0788000   20.5677347 
C     9.3928897   -8.9578167   24.9779354 
H     9.6906836   -9.9178248   25.4407070 
C     4.4671929   -8.2670531   20.9906816 
H     3.4108004   -8.5759101   20.9299174 
C     9.7611254   -9.0030213   23.4943057 
H     9.4348731   -8.0719601   22.9989879 
H    10.8502254   -9.1217912   23.3502589 
H     9.2512227   -9.8386377   22.9839529 
C     1.2612217   -7.3856660   23.3162852 
H     0.5080195   -6.6083097   23.5570431 
H     0.7277288   -8.2332430   22.8402738 
H     1.7018118   -7.7480947   24.2551349 
C     4.2258561   -9.4157539   27.8522746 
H     3.8348784   -8.3888240   27.7414643 
H     3.3842082  -10.0742064   28.1338001 
H     4.9492404   -9.4076424   28.6856957 
C     8.0764668  -11.7747004   25.2581520 
H     8.0628217  -11.3315708   24.2511534 
H     9.1170472  -12.0922673   25.4824583 
H     7.4495543  -12.6921100   25.2342839 
C     5.2876513   -9.4562490   21.4922416 
H     4.9110643   -9.8091455   22.4668454 
H     5.2435557  -10.2976629   20.7780731 
H     6.3436554   -9.1624657   21.6264162 
C    10.1829441   -7.8606191   25.6965617 
H     9.9603625   -7.8688020   26.7776646 
H    11.2719015   -8.0019683   25.5679727 
H     9.9140900   -6.8625927   25.3042255 
C     2.8422942   -5.8775584   26.1543762 
H     3.7735879   -5.9681324   26.7406862 
H     2.1960977   -5.1490384   26.6753777 
H     2.3342545   -6.8560869   26.1694669 
C     9.6544679   -3.2913700   27.3289004 
H     9.9194884   -2.2788127   26.9582534 
H    10.0747445   -3.3895269   28.3530273 
H    10.1527591   -4.0347761   26.6889235 
C     7.4688852  -11.2954017   27.5681917 
H     6.7926895  -12.1697277   27.6812783 
H     8.4677630  -11.5990913   27.9484563 
H     7.0955598  -10.4861934   28.2140374 
C     5.3858545   -5.6268174   29.1548562 
H     4.7539553   -6.4273199   28.7330408 
H     5.4137034   -5.7635178   30.2507789 
H     4.8968715   -4.6606858   28.9394314 
C     9.7158712   -4.1907758   23.7208851 
H     9.4557628   -5.0693846   23.1047140 
H    10.1284243   -3.4100658   23.0568829 
H    10.5098084   -4.5034641   24.4204304 
C     7.4290019   -3.1691835   23.4868153 
H     6.5764544   -2.7248729   24.0290096 
H     7.8525171   -2.3928042   22.8230577 
H     7.0448384   -3.9978380   22.8668139 
C     3.8232413   -4.0384462   24.7633855 
H     4.0552868   -3.6923022   23.7420654 
H     3.1697595   -3.2890750   25.2455110 
H     4.7672979   -4.0734559   25.3386139 
C     7.4629025   -2.6739251   28.1949342 
H     7.7503663   -2.7577845   29.2646327 
H     7.5883520   -1.6099645   27.9011967 
H     6.3959192   -2.9279506   28.1053573 
C     3.8496612   -9.9372241   25.4249251 
H     4.2961591  -10.3710702   24.5136531 
H     2.9759259  -10.5544826   25.7053030 
H     3.4975777   -8.9204218   25.1752437 
C     4.9363830   -7.8270049   19.6059134 
H     5.9880270   -7.4919833   19.6479498 
H     4.8747097   -8.6609514   18.8852036 
H     4.3304428   -6.9901976   19.2189433 
N     2.2950768   -6.9043176   22.4404069 
O     7.0175275   -6.5533614   22.8193239 
H     5.5342695   -6.8561199   22.1673135 
H     7.6922284   -6.1811302   22.2411389 
