85
Energy = -2506.976902823
N     4.1517132   -6.4056773   24.2958922 
N     8.2827544   -8.2390999   25.7227205 
N     4.3630732   -7.7515993   22.4412773 
N     6.1912724   -9.0545078   25.8909685 
N     6.8286382   -5.4852594   26.9607104 
N     7.5106321   -4.7575082   24.9505572 
C     7.5022602   -9.2777964   25.9912665 
C     3.3301857   -5.4646823   25.0659426 
H     2.4047796   -5.2300799   24.5125106 
C     8.1191152   -3.8359585   24.0159156 
H     8.1407383   -2.8124734   24.4426395 
C     3.6023905   -7.0101993   23.2656837 
C     5.2154348  -10.1037860   26.0871182 
H     5.5267652  -10.7751284   26.9134793 
C     7.5140729   -4.5781068   26.2681612 
C     6.5559092   -6.9413883   28.8883168 
H     7.3209278   -7.6275025   28.4884301 
H     6.5717586   -6.9947829   29.9916814 
H     5.5711946   -7.2992489   28.5394200 
C     6.8150809   -5.5175254   28.4071232 
H     7.8094851   -5.2302090   28.8096441 
C     9.7242331   -8.3058587   25.7544946 
H    10.0636782   -9.1933550   26.3228917 
C     3.9729563   -8.3896126   21.1954694 
H     3.0029206   -8.9005556   21.3348899 
C    10.2990672   -8.4304419   24.3406545 
H    10.0099904   -7.5542993   23.7329595 
H    11.4027581   -8.4887279   24.3558893 
H     9.9134934   -9.3356312   23.8383577 
C     2.1226212   -6.9242368   22.9617888 
H     1.8672240   -5.9422286   22.5272589 
H     1.8088473   -7.6948069   22.2454245 
H     1.5243534   -7.0514600   23.8768708 
C     3.8783673   -9.5064713   26.5055347 
H     3.4916609   -8.8437833   25.7125609 
H     3.1323259  -10.2992501   26.6924734 
H     3.9874116   -8.9079430   27.4254842 
C     5.0035156   -9.4619534   20.8559922 
H     5.0686361  -10.2162259   21.6576571 
H     4.7337442   -9.9721851   19.9158993 
H     6.0040591   -9.0130579   20.7292185 
C    10.2919704   -7.0823371   26.4703625 
H     9.9089325   -7.0257476   27.5035714 
H    11.3957092   -7.1183365   26.5069872 
H     9.9892727   -6.1600102   25.9459743 
C     2.9114675   -6.0404080   26.4165895 
H     3.7963276   -6.3250107   27.0114366 
H     2.3402173   -5.2921813   26.9945104 
H     2.2809249   -6.9377614   26.2989661 
C     8.0918683  -10.6157175   26.3920589 
H     7.3282830  -11.3873831   26.5525426 
H     8.7853232  -10.9795742   25.6151323 
H     8.6709180  -10.5146287   27.3262771 
C     5.7850358   -4.5501592   28.9970209 
H     4.7687670   -4.8198544   28.6596446 
H     5.7992409   -4.5743807   30.1019740 
H     5.9787302   -3.5115074   28.6764823 
C     9.5616166   -4.2240761   23.6799459 
H     9.5847557   -5.2337570   23.2331191 
H    10.0084606   -3.5156737   22.9587004 
H    10.1994856   -4.2407524   24.5805439 
C     7.2811240   -3.7790029   22.7391926 
H     6.2655831   -3.4058484   22.9557956 
H     7.7426040   -3.1106770   21.9898753 
H     7.1855965   -4.7927365   22.3113248 
C     4.0598480   -4.1359280   25.2407575 
H     4.3598917   -3.7247856   24.2631784 
H     3.3985918   -3.4047568   25.7393720 
H     4.9632582   -4.2586745   25.8610515 
C     8.2298532   -3.4066156   26.9036315 
H     9.2237386   -3.2551695   26.4529810 
H     7.6486841   -2.4817351   26.7375671 
H     8.3583285   -3.5307936   27.9879012 
C     5.0398379  -10.9595518   24.8291372 
H     5.9926529  -11.4268815   24.5238445 
H     4.2977434  -11.7639122   24.9866110 
H     4.6971086  -10.3230068   23.9939513 
C     3.8335181   -7.3781906   20.0564163 
H     4.7925660   -6.8544560   19.8963880 
H     3.5480500   -7.8782502   19.1138718 
H     3.0675770   -6.6175138   20.2837490 
Yb    6.5250390   -6.8656671   25.0175800 
O     6.9207061   -7.2878462   23.0000938 
H     7.6995430   -7.6388083   22.5567064 
H     5.4071862   -7.6432787   22.5712422 
