84
Energy = -1896.543303091
Ce    5.6723778   -6.9418755   25.4069944 
N     3.8156551   -5.5390034   23.9742048 
N     8.1409953   -8.9736648   24.5951633 
N     4.7386111   -7.1471151   22.7931654 
N     6.4236941   -9.3921167   26.0287823 
N     6.5231331   -5.4550317   27.2026715 
N     6.8480175   -4.6533354   25.1237282 
C     7.5081289   -9.8230469   25.4349192 
C     2.8083572   -4.5957397   24.3741552 
H     2.4613972   -3.9971198   23.5063237 
C     7.5144039   -3.8535348   24.1249393 
H     7.5874023   -2.7933618   24.4490532 
C     3.7923399   -6.2175269   22.8285164 
C     5.6237465  -10.3174156   26.8245012 
H     6.2164235  -11.2124272   27.0932451 
C     7.0885449   -4.5361836   26.4213181 
C     7.7197015   -6.4083383   29.1218814 
H     8.7030676   -6.1499560   28.6899274 
H     7.8133502   -6.3987932   30.2232833 
H     7.4747406   -7.4373187   28.8023562 
C     6.6397878   -5.4340189   28.6427508 
H     6.9311941   -4.4256283   28.9962958 
C     9.5524298   -9.0041295   24.2242677 
H     9.8998319  -10.0406231   24.3429416 
C     4.9389526   -8.0182487   21.6643243 
H     4.0429412   -8.0527067   21.0142926 
C     9.7201157   -8.6155213   22.7602751 
H     9.3877088   -7.5779751   22.5972720 
H    10.7794504   -8.6974208   22.4618234 
H     9.1217281   -9.2774461   22.1107291 
C     2.8084371   -5.9912458   21.7083991 
H     3.3312396   -5.8909213   20.7429193 
H     2.1131605   -6.8448470   21.6238784 
H     2.2105914   -5.0834122   21.8688406 
C     5.1971412   -9.6730061   28.1395024 
H     4.5619026   -8.7940222   27.9401888 
H     4.6249370  -10.3938380   28.7509260 
H     6.0778025   -9.3533455   28.7232994 
C     5.2302812   -9.4283388   22.1703415 
H     4.3969675   -9.8080142   22.7853378 
H     5.3737594  -10.1146585   21.3175309 
H     6.1439226   -9.4275398   22.7889043 
C    10.3748869   -8.1140210   25.1551191 
H    10.2743337   -8.4448157   26.2032969 
H    11.4437406   -8.1495749   24.8810347 
H    10.0256953   -7.0710803   25.0894254 
C     1.6127686   -5.3888907   24.9280601 
H     1.9656368   -6.0645894   25.7254467 
H     0.8592417   -4.6909437   25.3317370 
H     1.1343802   -5.9994693   24.1423093 
C     8.0513660  -11.2247584   25.5734076 
H     7.2425492  -11.9590110   25.4323163 
H     8.8256095  -11.4539577   24.8301678 
H     8.4773670  -11.3914444   26.5784652 
C     5.2892270   -5.7476210   29.2834531 
H     4.9322354   -6.7447236   28.9749067 
H     5.3563674   -5.7240392   30.3862388 
H     4.5318230   -5.0111438   28.9636557 
C     8.9345042   -4.3579053   23.8477936 
H     8.8917522   -5.4111340   23.5201973 
H     9.4352078   -3.7568339   23.0662132 
H     9.5559008   -4.3196849   24.7596895 
C     6.6999453   -3.8520951   22.8343418 
H     5.6816491   -3.4671738   23.0141390 
H     7.1804352   -3.2226211   22.0641559 
H     6.6109690   -4.8788975   22.4374009 
C     3.3790900   -3.6522816   25.4256383 
H     4.2604927   -3.1155801   25.0391205 
H     2.6163344   -2.9141597   25.7284495 
H     3.6976091   -4.2204485   26.3170429 
C     7.9351076   -3.4235482   27.0122705 
H     8.7407417   -3.8363564   27.6422120 
H     8.3958694   -2.7902658   26.2425227 
H     7.3174685   -2.7740798   27.6565754 
C     4.4059790  -10.7874265   26.0272610 
H     4.7154042  -11.2887297   25.0919974 
H     3.8002811  -11.5006617   26.6151414 
H     3.7779939   -9.9165418   25.7710585 
C     6.1129868   -7.4722025   20.8428385 
H     7.0102025   -7.4075302   21.4807565 
H     6.3219687   -8.1453280   19.9932147 
H     5.8949283   -6.4666795   20.4438930 
O     7.5856625   -7.7605838   24.4443445 
O     4.0590721   -7.4242587   26.1025280 
