82
Energy = -2430.682063103
N     4.0356656   -6.0448482   24.5218326 
N     7.8489281   -8.5171828   24.9012724 
N     5.0467848   -7.3396873   22.9866418 
N     5.9227136   -9.0211209   25.9499495 
N     6.9689955   -5.7433870   26.8816079 
N     7.3152412   -4.8960354   24.8249316 
C     7.1694262   -9.3836242   25.6465116 
C     3.0387466   -5.1167541   25.0086305 
H     2.5754829   -4.5719414   24.1610975 
C     7.6988609   -3.8682045   23.8813305 
H     7.6307703   -2.8665333   24.3499421 
C     3.9802462   -6.6204739   23.3201981 
C     4.9862988   -9.8766644   26.6429950 
H     5.4788785  -10.3865927   27.4982134 
C     7.4224474   -4.7332663   26.1434654 
C     7.3963952   -7.2492428   28.7484623 
H     8.3278986   -7.6067398   28.2778459 
H     7.5098731   -7.3230038   29.8450738 
H     6.5823958   -7.9249105   28.4336462 
C     7.1026743   -5.8125930   28.3213388 
H     7.9678910   -5.2064175   28.6563708 
C     9.2482507   -8.6804570   24.5785420 
H     9.5682898   -9.7265165   24.7498217 
C     5.1356633   -8.0930844   21.7553449 
H     4.1413538   -8.1734133   21.2762366 
C     9.4850365   -8.3851004   23.0992238 
H     9.1658319   -7.3560688   22.8537290 
H    10.5547675   -8.4833251   22.8427247 
H     8.9110067   -9.0788563   22.4623183 
C     2.7927593   -6.4861664   22.3901419 
H     3.1105624   -6.1134292   21.4019210 
H     2.3210692   -7.4718960   22.2344521 
H     2.0249859   -5.8073635   22.7844729 
C     3.8627555   -9.0250842   27.2235368 
H     3.3260905   -8.4992677   26.4147043 
H     3.1360133   -9.6469198   27.7754256 
H     4.2604743   -8.2635421   27.9173758 
C     5.6023059   -9.5188432   22.0415142 
H     4.8866189  -10.0355749   22.7026603 
H     5.6987962  -10.1005678   21.1068639 
H     6.5794803   -9.5058576   22.5541007 
C    10.1221365   -7.7836139   25.4584570 
H     9.9897868   -8.0312255   26.5262564 
H    11.1927882   -7.8963069   25.2083531 
H     9.8395437   -6.7242691   25.3203725 
C     1.9146867   -5.8216113   25.7708428 
H     2.3162000   -6.3262001   26.6676555 
H     1.1431709   -5.1007481   26.0971381 
H     1.4260675   -6.5885844   25.1443815 
C     7.7938821  -10.6761736   26.1274901 
H     7.1143849  -11.2577505   26.7645383 
H     8.0828072  -11.3079656   25.2701511 
H     8.7099346  -10.4696936   26.7059211 
C     5.8650595   -5.2708688   29.0392434 
H     4.9715361   -5.8579551   28.7599126 
H     5.9820929   -5.3231772   30.1372395 
H     5.6760695   -4.2188339   28.7639105 
C     9.1422328   -4.0517449   23.4052394 
H     9.2543474   -5.0226043   22.8912241 
H     9.4369996   -3.2521105   22.7018833 
H     9.8500703   -4.0414933   24.2530377 
C     6.7364810   -3.8654661   22.6968687 
H     5.7025797   -3.6827534   23.0351964 
H     7.0104612   -3.0851061   21.9649998 
H     6.7542567   -4.8421238   22.1820368 
C     3.7051513   -4.0606038   25.8860901 
H     4.4738814   -3.5113238   25.3157720 
H     2.9621164   -3.3359844   26.2632249 
H     4.2014871   -4.5312783   26.7522856 
C     7.9783739   -3.4547730   26.7314573 
H     8.9285805   -3.1750950   26.2492540 
H     7.2649835   -2.6301657   26.5570416 
H     8.1470497   -3.5249684   27.8143371 
C     4.4064118  -10.9567254   25.7257501 
H     5.1997241  -11.5891475   25.2909260 
H     3.7070548  -11.6143010   26.2737165 
H     3.8588814  -10.4867636   24.8898316 
C     6.0616334   -7.4011680   20.7529169 
H     7.0776682   -7.3004667   21.1749391 
H     6.1338083   -7.9763983   19.8119642 
H     5.6937738   -6.3890000   20.5101062 
Yb    6.1570537   -6.9099175   25.0064972 
