97
Energy = -2029.864106360
Ce    6.1405140   -6.9688678   25.0899854 
N     7.6316452  -10.9595460   25.9548235 
N     3.7579703   -6.3276282   24.6143328 
N     7.8124811   -8.8445985   24.8622777 
N     5.0081077   -7.0079624   22.8465315 
N     6.0256062   -9.2057127   26.2101300 
N     6.7569293   -5.4251138   26.9591947 
N     8.2325344   -3.5578151   26.7666882 
N     7.6673122   -4.9791373   24.9304209 
C     7.1592472   -9.6712098   25.6767239 
C     2.8070824   -5.3729674   25.1554192 
H     2.0448938   -5.1204478   24.3953148 
C     8.0462150   -4.0171730   23.9127883 
H     8.3997370   -3.0809694   24.3832829 
C     3.8315853   -6.5816540   23.3052240 
C     4.9675865  -10.0871916   26.6716511 
H     5.3531363  -10.8391433   27.3861175 
C     7.5540315   -4.6528005   26.2182835 
C     7.5830418   -6.8903644   28.7442474 
H     8.5923029   -6.9438752   28.3002565 
H     7.6836814   -7.0114478   29.8386168 
H     6.9962850   -7.7412256   28.3505078 
C     6.9121759   -5.5585196   28.3949145 
H     7.5705208   -4.7618930   28.7877787 
C     2.8328896   -5.7571789   21.1878140 
H     2.5834195   -6.4263946   20.3381350 
H     2.1416695   -4.8894039   21.1410414 
H     3.8564198   -5.3808348   21.0436335 
C     9.2380280   -8.9610088   24.6201864 
H     9.6125472   -9.9367777   24.9802888 
C     5.1406347   -7.7855908   21.6295962 
H     4.1855688   -7.7945163   21.0722604 
C     9.5412397   -8.8658504   23.1268060 
H     9.2001974   -7.8951131   22.7248994 
H    10.6252754   -8.9523921   22.9327243 
H     9.0252329   -9.6614029   22.5619343 
C     1.4182144   -6.8775590   22.8241916 
H     0.6763955   -6.0558509   22.9089947 
H     1.0375776   -7.5914232   22.0633098 
H     1.4640813   -7.4028499   23.7897739 
C     3.9286934   -9.2621654   27.4228880 
H     3.4717999   -8.5110242   26.7534232 
H     3.1212160   -9.9036269   27.8179215 
H     4.3913846   -8.7288452   28.2718159 
C     8.0982498  -11.8360028   24.9169433 
H     7.9630398  -11.3581201   23.9349703 
H     9.1692659  -12.1054018   25.0302287 
H     7.5164151  -12.7815632   24.9181929 
C     5.4697265   -9.2438521   21.9595288 
H     4.6609434   -9.7010428   22.5552226 
H     5.5962574   -9.8421007   21.0386237 
H     6.4027198   -9.3086753   22.5493400 
C    10.0027320   -7.8869074   25.3989801 
H     9.8483449   -8.0127980   26.4850892 
H    11.0887215   -7.9453556   25.1989050 
H     9.6477411   -6.8781934   25.1196833 
C     2.0818209   -5.9441043   26.3713343 
H     2.7977314   -6.1627288   27.1834189 
H     1.3356269   -5.2282617   26.7603017 
H     1.5598707   -6.8841695   26.1221841 
C     9.6199378   -3.3079259   26.4933918 
H     9.7892891   -2.3469155   25.9637346 
H    10.1991287   -3.2717983   27.4398127 
H    10.0324974   -4.1203801   25.8768055 
C     7.6817829  -11.4814589   27.2913352 
H     6.9894692  -12.3350535   27.4514482 
H     8.7071487  -11.8393547   27.5211594 
H     7.4347320  -10.6895664   28.0144200 
C     5.5592927   -5.4367538   29.0935182 
H     4.8698415   -6.2263270   28.7424126 
H     5.6638285   -5.5384800   30.1883638 
H     5.0848352   -4.4628686   28.8806407 
C     9.1757194   -4.5603458   23.0398680 
H     8.8552036   -5.4844387   22.5257675 
H     9.4696587   -3.8273761   22.2677093 
H    10.0687824   -4.8056225   23.6399965 
C     6.8388065   -3.6437173   23.0485510 
H     6.0509811   -3.1747722   23.6627079 
H     7.1232643   -2.9295802   22.2542362 
H     6.4071458   -4.5423409   22.5705887 
C     3.5090450   -4.0615496   25.5195331 
H     3.9615078   -3.6019474   24.6238589 
H     2.7976590   -3.3349364   25.9537444 
H     4.3152407   -4.2422969   26.2545305 
C     7.5799813   -2.6171398   27.6334461 
H     8.0246073   -2.5892594   28.6503699 
H     7.6487741   -1.5915271   27.2134007 
H     6.5138542   -2.8724760   27.7278170 
C     4.3119754  -10.8589224   25.5240092 
H     5.0564170  -11.4610563   24.9749261 
H     3.5302485  -11.5438425   25.9006159 
H     3.8405506  -10.1603845   24.8089988 
C     6.2133318   -7.1874430   20.7211205 
H     7.1909439   -7.1761535   21.2363335 
H     6.3248341   -7.7758118   19.7929177 
H     5.9706796   -6.1472697   20.4430561 
N     2.7271380   -6.4106721   22.4618886 
