100
Energy = -2790.378481042
N     7.5058859  -11.1593869   26.4255245 
N     3.8481061   -6.3681155   24.6557169 
N     8.4207654   -9.7332293   24.8353431 
N     4.9911258   -6.8953403   22.7834587 
N     6.3466906   -9.1887321   25.7226568 
N     6.7158510   -5.4659903   26.6625974 
N     7.7175805   -3.2924205   26.4770340 
N     7.0420977   -4.6131141   24.5995996 
C     7.3958291   -9.9894867   25.6699965 
C     2.8445482   -5.5417625   25.3079454 
H     2.0792695   -5.2412414   24.5688729 
C     7.2421305   -3.5490045   23.6423148 
H     7.5181896   -2.6169471   24.1697465 
C     3.8282084   -6.5500755   23.3321105 
C     5.0901482   -9.7630078   26.2188627 
H     5.2675746  -10.7941440   26.5672065 
C     7.1603395   -4.4528249   25.9113463 
C     7.9965291   -6.8567858   28.2198948 
H     8.9077995   -6.7769183   27.6027764 
H     8.3027940   -6.9887737   29.2740963 
H     7.4518578   -7.7620159   27.8974853 
C     7.1234720   -5.6123026   28.0452731 
H     7.7482845   -4.7497524   28.3426384 
C     2.6459255   -5.6278531   21.3535603 
H     2.3696382   -6.2391381   20.4690299 
H     1.9106467   -4.7985241   21.4269496 
H     3.6350475   -5.1829200   21.1713986 
C     9.8140326  -10.0766986   25.0751646 
H     9.8470016  -10.8788069   25.8296734 
C     5.1114276   -7.5356964   21.4883086 
H     4.1282457   -7.5543640   20.9824456 
C    10.4475979  -10.5904322   23.7848480 
H    10.4041604   -9.8144790   22.9994651 
H    11.5069291  -10.8571854   23.9430516 
H     9.9170746  -11.4806909   23.4062272 
C     1.4130881   -6.9744039   22.9632884 
H     0.6280410   -6.2163795   23.1674944 
H     1.0301966   -7.6423137   22.1629118 
H     1.5511948   -7.5805199   23.8704206 
C     4.5327326   -8.9626111   27.3889750 
H     4.3463659   -7.9183843   27.0884715 
H     3.5719046   -9.3858820   27.7313092 
H     5.2264260   -8.9529254   28.2462063 
C     7.8738674  -12.4133345   25.8246204 
H     8.0002938  -12.2853203   24.7394237 
H     8.8171095  -12.8231174   26.2410294 
H     7.0801829  -13.1706956   25.9922262 
C     5.5625573   -8.9908332   21.6377888 
H     4.8247564   -9.5704818   22.2165789 
H     5.6763901   -9.4719823   20.6487308 
H     6.5315508   -9.0353719   22.1651726 
C    10.5801727   -8.8753819   25.6311939 
H    10.1494020   -8.5475701   26.5922385 
H    11.6430305   -9.1275701   25.7946712 
H    10.5235700   -8.0238492   24.9314077 
C     2.1293441   -6.2796170   26.4401942 
H     2.8175966   -6.4638013   27.2826040 
H     1.2859240   -5.6788438   26.8257158 
H     1.7353351   -7.2554424   26.1087930 
C     9.0256840   -2.8255763   26.1178342 
H     9.0129811   -1.8003847   25.6910655 
H     9.6944749   -2.8064094   27.0055289 
H     9.4764148   -3.5002929   25.3749129 
C     7.2679698  -11.1844575   27.8422276 
H     6.4008947  -11.8176624   28.1228618 
H     8.1579107  -11.5837873   28.3712886 
H     7.0856034  -10.1652073   28.2119013 
C     5.9200177   -5.6591288   28.9877171 
H     5.2635517   -6.5092643   28.7370886 
H     6.2413662   -5.7714273   30.0392334 
H     5.3159080   -4.7392263   28.9126387 
C     8.3726530   -3.8980938   22.6705661 
H     8.0970742   -4.7804352   22.0661447 
H     8.5741678   -3.0637327   21.9750348 
H     9.3083405   -4.1309488   23.2083171 
C     5.9581536   -3.2588631   22.8644243 
H     5.1668850   -2.8881577   23.5366519 
H     6.1316249   -2.4952633   22.0844432 
H     5.5919619   -4.1823504   22.3829503 
C     3.4619915   -4.2510182   25.8479212 
H     3.8905281   -3.6507397   25.0290969 
H     2.7025871   -3.6374204   26.3672957 
H     4.2758508   -4.4866914   26.5553333 
C     7.0298205   -2.5414492   27.4879301 
H     7.5675284   -2.5300125   28.4601543 
H     6.9004359   -1.4855843   27.1684244 
H     6.0279717   -2.9646205   27.6543206 
C     4.0622697   -9.8673791   25.0929555 
H     4.4552978  -10.4773827   24.2628413 
H     3.1377118  -10.3455122   25.4645866 
H     3.7962089   -8.8684629   24.7058450 
C     6.0953305   -6.7764217   20.5993620 
H     7.0895222   -6.7663230   21.0789282 
H     6.1915848   -7.2562853   19.6088426 
H     5.7815231   -5.7292877   20.4454773 
N     2.6641413   -6.3901786   22.5702061 
Yb    6.2306239   -6.8018874   24.7451556 
O     7.9832969   -7.4039220   23.7393500 
H     8.5349225   -6.8269505   23.2001033 
H     8.2915976   -8.8749854   24.2341796 
