57
Energy = -1472.835145875
Ce    4.9694461   -7.7072817   25.1318931 
N     4.0790271   -5.7655771   23.9108456 
N     8.1130143   -8.4900491   25.1984858 
N     4.1518032   -7.7275391   22.8012115 
N     6.3350996   -9.8004475   25.7133691 
C     7.6395669   -9.6806189   25.6059310 
C     3.5939731   -4.4373485   24.2064041 
H     3.6523743   -3.7894975   23.3068161 
C     3.7993002   -6.4393876   22.8026836 
C     5.7488275  -10.9795159   26.3365593 
H     6.3743484  -11.8749103   26.1500917 
C     9.4540640   -8.1283081   24.7540176 
H    10.1084692   -8.9854744   24.9644577 
C     4.1235497   -8.5314387   21.6001642 
H     3.2887212   -8.2184885   20.9407481 
C     9.4629787   -7.8767448   23.2480047 
H     8.7971926   -7.0349029   22.9989558 
H    10.4838156   -7.6353163   22.9051326 
H     9.1132916   -8.7678942   22.6981570 
C     3.1100524   -5.8143702   21.6078571 
H     3.7291993   -5.9171457   20.7012268 
H     2.1514429   -6.3244150   21.4097603 
H     2.9033755   -4.7462009   21.7580844 
C     5.6244921  -10.7820852   27.8491759 
H     4.9867830   -9.9049849   28.0563223 
H     5.1735772  -11.6688687   28.3297197 
H     6.6097926  -10.6052243   28.3154533 
C     3.8796839   -9.9932853   21.9594530 
H     2.9446813  -10.1055404   22.5348105 
H     3.8078973  -10.6194344   21.0527237 
H     4.7114233  -10.3825685   22.5749684 
C     9.9565902   -6.9244849   25.5439204 
H     9.9906852   -7.1500955   26.6235708 
H    10.9707357   -6.6425930   25.2129909 
H     9.2827750   -6.0657951   25.3918543 
C     2.1383987   -4.4663075   24.6781493 
H     2.0477040   -5.1026874   25.5764298 
H     1.7743554   -3.4530679   24.9264315 
H     1.4756050   -4.8861216   23.9005895 
C     8.6041177  -10.7891704   25.9375643 
H     8.5179181  -11.6091371   25.2030889 
H     9.6508063  -10.4615425   25.9638915 
H     8.3682997  -11.2097687   26.9277664 
C     4.4955785   -3.8076446   25.2645796 
H     5.5436328   -3.7831191   24.9184399 
H     4.1811136   -2.7744956   25.4941522 
H     4.4528860   -4.3895636   26.2047087 
C     4.3799788  -11.2592754   25.7228911 
H     4.4565186  -11.4179543   24.6340680 
H     3.9299409  -12.1631232   26.1691559 
H     3.6883079  -10.4180171   25.9158476 
C     5.4254366   -8.3851303   20.8054974 
H     6.2836531   -8.7054518   21.4239428 
H     5.4094896   -8.9982564   19.8862199 
H     5.6023388   -7.3351883   20.5137715 
O     7.2039448   -7.5323550   24.9653833 
O     3.8884422   -7.8039421   26.5612572 
